146

C 1.0165537654996095 -0.4309092145651008 26.266950852160225
O 1.8502686322412565 -1.309173540414822 26.421117483607144
C 0.9503548526043613 0.297928329759102 24.93874439634398
C 0.6046228835591889 -0.5469753065787368 23.692523238709335
C 0.3332467254116316 -2.032641787765245 23.900373170749187
C -0.6865041167803945 -2.4982247663360866 24.757177568286195
C -0.9102820841386583 -3.869059715608766 24.913225937773273
C -0.1249199059540338 -4.790896249604537 24.21847370493716
C 0.8880681255775831 -4.343581498598237 23.368066946544523
C 1.1175656652823247 -2.9737863927058754 23.20976186730255
C -0.6615962519035152 0.3022416153432872 23.44682238095266
C -0.7352598680197757 1.0192420960177466 22.114052352963856
O -1.495913576523884 2.0185799243341918 22.0014748075664
N -0.017119862255682516 0.5524228409996695 20.959917569193557
C 0.6566800219648448 1.4971229444462668 20.070319434230143
C 0.06854988955508778 1.3788511355904578 18.658236186027448
N 0.04219550376139969 -0.015071328437911369 18.1785227661031
C -0.663502667034765 -0.9139993602499568 19.109964406331017
C -0.09383398456963521 -0.8450679706408779 20.533373403758322
C -0.3042991263099606 1.1596229094057433 24.68517834095987
C 0.001983310701212382 2.636992904280584 24.46309478616346
C 1.0138438333072313 3.0701614120128946 23.57944164627064
C 1.2629132090044317 4.4335868217011 23.400331281566775
C 0.5142463359311327 5.380526145616892 24.101765747863205
C -0.4859069397192357 4.96558363535127 24.983449293365386
C -0.7411745036807211 3.6029283328433444 25.164671057172065
H 1.9033992518386142 0.8494057180872024 24.785032974185313
H 1.3863158443595762 -0.37644556131301066 22.918909523898947
H -1.3033429882942107 -1.8047856409145684 25.313553194044733
H -1.6930886993716063 -4.216782377110313 25.574868106592497
H -0.30017642635161446 -5.851954518088259 24.34039027104062
H 1.4972461483529211 -5.059000994534704 22.830903276194842
H 1.9098377908070705 -2.648994053625678 22.54701545142366
H -1.610837225786442 -0.2508876418772743 23.61395219257351
H 1.7433113955319381 1.267259532917684 20.050147361601553
H 0.5433689969749209 2.5420208996414484 20.43371716595897
H 0.6600604902898364 2.006220076632553 17.95689246634135
H -0.9679657206343002 1.7815811515156987 18.662177183816738
H -0.6058548416737377 -1.9600304829137603 18.738559447893667
H -1.7399659955282718 -0.6362029533160669 19.136561456925037
H 0.921561201610055 -1.2942033909978394 20.557098695513876
H -0.7486584577642335 -1.4343646022877965 21.211157158388076
H -1.0951213611118962 1.0192588208356488 25.452717877856667
H 1.6025583822837781 2.356491290580059 23.017865296696176
H 2.036570934328269 4.755913485423177 22.715468057211325
H 0.7088704558594845 6.435984687435801 23.961923424796787
H -1.0652027852860955 5.700675152226201 25.52710012168122
H -1.5221824207690267 3.3031314824634626 25.85229748940812
C 0.9954560136189086 -0.42337355034614466 17.17768946910868
O 1.8291708803605564 -1.3016378761958665 17.33185610055559
C 0.9292571007236616 0.30546399397805735 15.84948301329243
C 0.5835251316784889 -0.5394396423597816 14.603261855657783
C 0.3121489735309324 -2.0251061235462893 14.811111787697639
C -0.7076018686610941 -2.4906891021171313 15.667916185234645
C -0.9313798360193588 -3.861524051389811 15.823964554721725
C -0.1460176578347343 -4.783360585385582 15.12921232188561
C 0.8669703736968835 -4.336045834379282 14.278805563492973
C 1.0964679134016242 -2.96625072848692 14.120500484251002
C -0.6826940037842155 0.30977727956224244 14.35756099790111
C -0.7563576199004762 1.0267777602367023 13.024790969912306
O -1.5170113284045845 2.0261155885531474 12.91221342451485
N -0.038217614136382805 0.5599585052186249 11.870656186142009
C 0.6355822700841451 1.5046586086652223 10.981058051178593
C 0.04745213767438772 1.3863867998094137 9.568974802975902
N 0.021097751880699844 -0.007535664218955684 9.08926138305155
C -0.6846004189154647 -0.9064636960310013 10.020703023279465
C -0.1149317364503355 -0.8375323064219224 11.444112020706772
C -0.32539687819065977 1.1671585736246985 15.595916957908315
C -0.019114441179487685 2.644528568499539 15.373833403111911
C 0.9927460814265312 3.07769707623185 14.490180263219093
C 1.241815457123732 4.441122485920055 14.311069898515225
C 0.49314858405043305 5.388061809835847 15.012504364811653
C -0.5070046915999353 4.973119299570225 15.894187910313839
C -0.7622722555614208 3.6104639970623005 16.075409674120518
H 1.8823014999579142 0.8569413823061581 15.695771591133765
H 1.3652180924788757 -0.3689098970940551 13.829648140847395
H -1.3244407401749105 -1.7972499766956131 16.22429181099318
H -1.7141864512523066 -4.209246712891358 16.485606723540954
H -0.32127417823231497 -5.844418853869303 15.251128887989065
H 1.4761483964722206 -5.051465330315748 13.741641893143292
H 1.8887400389263704 -2.641458389406723 13.457754068372113
H -1.6319349776671421 -0.24335197765831884 14.524690809521962
H 1.7222136436512383 1.2747951971366391 10.960885978550001
H 0.5222712450942208 2.549556563860404 11.344455782907424
H 0.6389627384091365 2.0137557408515088 8.867631083289803
H -0.9890634725150003 1.7891168157346544 9.572915800765191
H -0.6269525935544374 -1.952494818694805 9.649298064842116
H -1.761063747408972 -0.6286672890971112 10.04730007387349
H 0.9004634497293549 -1.2866677267788837 11.467837312462326
H -0.7697562096449331 -1.426828938068841 12.121895775336528
H -1.1162191129925965 1.0267944850546042 16.363456494805124
H 1.5814606304030776 2.364026954799014 13.928603913644622
H 2.015473182447569 4.763449149642132 13.626206674159775
H 0.6877727039787849 6.443520351654756 14.872662041745237
H -1.0863005371667942 5.708210816445156 16.437838738629665
H -1.5432801726497272 3.3106671466824182 16.763036106356573
C 0.974358261738208 -0.4158378861271892 8.088428086057132
O 1.8080731284798566 -1.294102211976911 8.242594717504042
C 0.908159348842962 0.3129996581970128 6.76022163024088
C 0.5624273797977883 -0.5319039781408259 5.514000472606236
C 0.2910512216502321 -2.0175704593273336 5.721850404646091
C -0.7286996205417942 -2.483153437898176 6.578654802183094
C -0.9524775879000588 -3.8539883871708556 6.7347031716701755
C -0.16711540971543437 -4.775824921166627 6.039950938834062
C 0.8458726218161832 -4.328510170160326 5.189544180441428
C 1.0753701615209241 -2.958715064267965 5.031239101199454
C -0.7037917556649159 0.3173129437811978 5.26829961484956
C -0.7774553717811765 1.0343134244556575 3.935529586860758
O -1.5381090802852844 2.0336512527721027 3.8229520414632985
N -0.05931536601708304 0.5674941694375807 2.78139480309046
C 0.6144845182034451 1.5121942728841777 1.8917966681270426
C 0.026354385793687582 1.393922464028369 0.4797134199243518
N 0.0 0.0 -0.0
C -0.7056981707961651 -0.8989280318120458 0.9314416402279155
C -0.1360294883310357 -0.829996642202967 2.354850637655221
C -0.3464946300713605 1.1746942378436542 6.506655574856768
C -0.04021219306018775 2.652064232718495 6.284572020060362
C 0.9716483295458312 3.085232740450806 5.400918880167542
C 1.2207177052430316 4.4486581501390114 5.2218085154636755
C 0.4720508321697332 5.395597474054803 5.923242981760103
C -0.5281024434806358 4.980654963789182 6.804926527262288
C -0.7833700074421213 3.6179996612812557 6.986148291068969
H 1.8612037480772146 0.8644770465251137 6.606510208082218
H 1.3441203405981756 -0.36137423287509984 4.740386757795844
H -1.3455384920556108 -1.789714312476658 7.135030427941629
H -1.735284203133007 -4.201711048672402 7.396345340489405
H -0.3423719301130149 -5.836883189650347 6.161867504937515
H 1.4550506445915208 -5.043929666096792 4.652380510091745
H 1.8676422870456704 -2.6339227251877677 4.368492685320565
H -1.6530327295478418 -0.23581631343936338 5.435429426470412
H 1.7011158917705385 1.2823308613555948 1.8716245954984525
H 0.5011734932135212 2.5570922280793598 2.2551943998558728
H 0.6178649865284368 2.021291405070464 -0.22163029976174725
H -1.0101612243957006 1.7966524799536097 0.48365441771364215
H -0.6480503454351376 -1.944959154475849 0.560036681790568
H -1.7821614992896724 -0.6211316248781559 0.9580386908219405
H 0.8793656978486551 -1.2791320625599283 2.3785759294107773
H -0.7908539615256327 -1.4192932738498854 3.03263439228498
H -1.1373168648732965 1.0343301492735597 7.2741951117535715
H 1.5603628785223775 2.3715626190179697 4.839342530593074
H 1.9943754305668695 4.770984813861087 4.536945291108227
H 0.666674952098085 6.4510560158737125 5.783400658693689
H -1.1073982890474945 5.715746480664111 7.348577355578119
H -1.5643779245304272 3.318202810901374 7.673774723305028
H 0.3930897373284701 -0.16662767451612015 27.108287807943082
H 1.0011648648860816 -0.35759460497318263 -0.19024986678499284
