120
work_dir/test1/1.xyz_work_dir/test1/0.xyz_work_dir/test1/2.xyz_work_dir/test1/3.xyz
C          4.86795        3.54334       -1.65440
C          3.34435        3.63424       -1.64335
C          2.79606        4.90547       -0.93138
C          1.25865        5.06032       -1.10147
C          0.39491        4.11176       -0.19694
C          0.60075        2.56915       -0.04977
C          0.32755        1.65746       -1.26520
C         -1.13442        1.26419       -1.67586
C         -1.91394        0.23252       -0.77107
C         -3.11275        0.64483        0.18063
C         -3.78835       -0.60995        0.80708
C         -4.41604       -1.62158       -0.17510
C         -5.49041       -1.00445       -1.07380
H          5.32326        4.35681       -2.24010
H          5.27122        3.56997       -0.62312
H          5.17006        2.58952       -2.13931
H          2.99489        3.61571       -2.69955
H          2.99953        2.71282       -1.16757
H          3.27136        5.74668       -1.45862
H          3.09671        4.95934        0.13507
H          1.06611        4.85977       -2.17783
H          0.53013        4.47788        0.84527
H         -0.63460        4.32359       -0.49972
H          1.63059        2.41692        0.31548
H          0.00157        2.17924        0.79119
H          0.84447        2.10316       -2.14120
H          0.83614        0.69009       -1.05323
H         -1.76810        2.10063       -2.03532
H         -0.92650        0.68609       -2.60617
H         -1.18639       -0.41820       -0.23928
H         -2.41243       -0.42177       -1.51543
H         -3.89058        1.14770       -0.42588
H         -4.61629       -0.26663        1.46844
H         -3.05235       -1.14732        1.44445
H         -3.63971       -2.10433       -0.80196
H         -4.89400       -2.42402        0.42827
H         -5.05293       -0.24743       -1.75624
H         -6.28707       -0.53181       -0.46048
H         -5.94914       -1.79794       -1.70039
C          4.71509        7.18655       -3.49758
C          3.91348        7.25903       -4.78775
C          2.41612        6.83700       -4.63745
C          1.55520        7.16487       -5.88811
C          0.02754        6.86998       -5.79883
C         -0.52565        5.74247       -4.91099
C         -2.08017        5.62332       -5.04784
C         -2.86730        6.97421       -5.05762
C         -4.35577        6.82950       -5.44311
C         -5.45406        6.80085       -4.34437
C         -6.81779        6.40916       -4.99458
C         -7.36234        7.38017       -6.06216
C         -7.69400        8.76257       -5.49400
H          4.31079        7.88964       -2.74135
H          5.76665        7.49120       -3.69134
H          4.71000        6.16706       -3.10900
H          4.02491        8.31813       -5.06846
H          4.39387        6.62881       -5.56527
H          1.97866        7.33639       -3.80154
H          2.36563        5.75232       -4.40265
H          1.97691        6.50941       -6.68210
H         -0.34683        6.76340       -6.84061
H         -0.43917        7.76500       -5.37805
H         -0.06394        4.76453       -5.16534
H         -0.27617        5.96842       -3.85653
H         -2.26686        5.14348       -6.03341
H         -2.45986        4.93975       -4.26181
H         -2.71920        7.60734       -4.15989
H         -2.45847        7.53579       -5.92168
H         -4.61003        7.72482       -6.05244
H         -4.44782        5.95681       -6.12557
H         -5.58330        7.82393       -3.93500
H         -7.60164        6.34642       -4.20781
H         -6.71803        5.39784       -5.44624
H         -6.66038        7.47817       -6.91495
H         -8.30602        6.94808       -6.46026
H         -6.78472        9.28051       -5.12841
H         -8.42341        8.66986       -4.66035
H         -8.14780        9.39112       -6.28835
C         -2.72725        1.58868        1.35367
C         -2.52756        3.01321        0.86219
C         -3.81093        3.79627        0.57209
C         -3.52890        4.85176       -0.50681
C         -4.67465        5.84280       -0.62198
C         -4.60127        6.66238       -1.91924
C         -5.17680        5.87597       -3.12813
H         -3.50506        1.63728        2.14789
H         -1.80414        1.18131        1.81821
H         -1.91483        3.60982        1.57235
H         -1.99803        2.89930       -0.06378
H         -4.17015        4.23733        1.52738
H         -4.61799        3.14963        0.16875
H         -3.37406        4.30604       -1.46423
H         -2.61164        5.43880       -0.28327
H         -4.60220        6.51722        0.26008
H         -5.66375        5.33771       -0.56968
H         -5.27663        7.52971       -1.75013
H         -3.57995        7.05928       -2.09680
H         -6.16127        5.52651       -2.74963
H         -4.62216        4.95838       -3.40995
C          0.69437        6.52221       -0.82948
C          1.53971        7.80607       -1.10311
C          0.65832        9.03849       -1.47579
C          0.28967        9.10455       -2.98464
C          1.38914        9.79293       -3.87020
C          1.09717        9.79334       -5.40568
C          1.69187        8.66031       -6.32694
H         -0.26903        6.57191       -1.38269
H          0.40615        6.63152        0.24165
H          2.08370        8.01976       -0.15681
H          2.32566        7.69348       -1.84201
H          1.16417        9.99179       -1.21599
H         -0.26610        8.98514       -0.85817
H          0.00540        8.09396       -3.29870
H         -0.62295        9.72937       -3.10475
H          2.42418        9.45619       -3.67407
H          1.36530       10.85413       -3.53764
H          0.00194        9.90382       -5.55161
H          1.53424       10.72490       -5.82762
H          2.74938        8.89072       -6.53885
H          1.21618        8.77858       -7.32482
