114

C 0.37922737625784864 0.02136484231776327 43.10488862297685
C -0.37188396681689095 -0.749340760998723 42.21151873745126
C -0.06974550029412074 -0.7336699257801267 40.846364474793795
C 0.9823267793698438 0.06636389575056678 40.362792200734724
O 1.326495078046209 0.09798475419918737 39.00334571453595
C 0.4327568320105857 -0.06257620722473113 37.93408069977825
C -0.9033591512143215 0.3601002083839369 38.011493878121136
C -1.761998707760641 0.20048043110631014 36.9202573643127
C -1.2970272131706935 -0.3622953713248286 35.71006308923006
C -2.2083961482990495 -0.5879743403449157 34.488757949371056
C -3.566735529067575 0.14870970422813995 34.600700104397035
C -2.51454236475249 -2.103530793572073 34.421796246265764
C -1.5060472500099846 -0.05270579489285408 33.225217983358206
C -1.2862897111294735 -0.8410304045481986 32.07252710058479
C -0.6498635896981604 -0.30429740874033484 30.949789786366992
C -0.22991765287627097 1.0348010586652547 30.941455309191625
O 0.42490240705406845 1.6012058313874378 29.83789529807516
C 0.20521434477452372 1.255337222181534 28.496352257926308
C 1.2583635311226562 1.3922735587469732 27.585992564659794
C 1.0758274649392296 1.0740254452256013 26.236959661480494
C -0.1720573744458468 0.6243786731496813 25.77627510090831
C -0.3600626525355494 0.29065109365791975 24.350833958740036
N -1.5159818965602623 -0.15065349553993895 23.815639985146117
N -1.2840588002363893 -0.33552130633696853 22.525406466078483
C 0.002841545028863024 -0.0002500748644722328 22.323714869257763
O 0.5769874564926584 0.38457972924155065 23.43669939981744
C -1.2356274641963612 0.5052002180945365 26.686217352508788
C -1.0508223810613089 0.8239318778936885 28.0348286088329
C -0.4252357639250789 1.817467162848507 32.08063981298761
C -1.0617599863320084 1.2868832750487467 33.20467464788089
C 0.04966852806403943 -0.7813604154218499 35.65034385175004
C 0.9033591437215567 -0.6195032940750749 36.74369508695748
C 1.742273457449525 0.8186796141099933 41.26687412507731
C 1.4388725552407544 0.8022053482861187 42.63182157283874
H -1.1846231483791412 -1.3656890684404488 42.57418521540068
H -0.6426470955354667 -1.3579759050984594 40.17346492336409
H -1.2802866670857218 0.8287545533845447 38.91106831200143
H -2.783396190039284 0.529691589038143 37.03933921389117
H -4.190853944507596 -0.2759991777307077 35.41645337116519
H -3.4233714625975007 1.2336440382973448 34.79188963885951
H -4.142419397872689 0.04213696969742673 33.65528643583485
H -3.2331787429087244 -2.3316194331604976 33.60502815339595
H -2.9710634230007136 -2.448137584539865 35.375387712805185
H -1.5867696998595997 -2.693490680684042 34.260366605039685
H -1.5945604491210092 -1.8745643879796672 32.021406786095994
H -0.46982837383137754 -0.941536420146887 30.09388120813717
H 2.225123277191332 1.7402528215481432 27.927351878700847
H 1.9097621194484846 1.1811676092634975 25.554314039386714
H -2.211751638214013 0.17331799800788872 26.354952486646567
H -1.8921954044160767 0.752881991108532 28.71148501590054
H -0.08926525445532407 2.846626930067697 32.092431602375896
H -1.2014919796213746 1.9239542759678898 34.0690503837419
H 0.4436419906104019 -1.2349185279232817 34.74940984172801
H 1.9347473426053061 -0.9400636384552323 36.66868537452495
H 2.5652255188981803 1.4240145544887892 40.90863004685687
H 2.0283103465693477 1.3947341475477888 43.31987819475092
C 0.3763858312289856 0.021614917182235488 20.781173753719088
C -0.3747255118457542 -0.749090686134251 19.887803868193487
C -0.07258704532298388 -0.7334198509156542 18.52264960553603
C 0.9794852343409808 0.066613970615039 18.039077331476964
O 1.3236535330173462 0.09823482906365956 16.67963084527819
C 0.42991528698172277 -0.06232613236025893 15.610365830520482
C -0.9062006962431847 0.3603502832484092 15.68777900886337
C -1.764840252789504 0.20073050597078235 14.596542495054937
C -1.2998687581995563 -0.3620452964603563 13.386348219972302
C -2.2112376933279125 -0.5877242654804434 12.165043080113291
C -3.5695770740964377 0.1489597790926122 12.276985235139282
C -2.517383909781353 -2.103280718707601 12.098081377007999
C -1.5088887950388477 -0.0524557200283819 10.901503114100434
C -1.2891312561583366 -0.8407803296837262 9.748812231327033
C -0.6527051347270232 -0.3040473338758627 8.626074917109229
C -0.23275919790513386 1.035051133529727 8.617740439933856
O 0.42206086202520526 1.60145590625191 7.514180428817399
C 0.20237279974566078 1.2555872970460065 6.1726373886685435
C 1.2555219860937932 1.3925236336114455 5.262277695402029
C 1.0729859199103666 1.0742755200900735 3.913244792222731
C -0.17489891947470987 0.6246287480141535 3.452560231650544
C -0.3629041975644126 0.2909011685223919 2.0271190894822775
N -1.5188234415891253 -0.15040342067546672 1.4919251158883509
N -1.2869003452652523 -0.33527123147249627 0.2016915968207201
C 0.0 0.0 -0.0
O 0.5741459114637952 0.3848298041060229 1.1129845305596735
C -1.2384690092252244 0.5054502929590088 4.362502483251022
C -1.053663926090172 0.8241819527581608 5.711113739575136
C -0.4280773089539418 1.817717237712979 9.756924943729855
C -1.0646015313608714 1.287133349913219 10.880959778623126
C 0.046826983035176295 -0.7811103405573775 13.32662898249228
C 0.9005175986926938 -0.6192532192106024 14.419980217699715
C 1.7394319124206623 0.8189296889744658 18.943159255819545
C 1.4360310102118916 0.8024554231505908 20.308106703580982
H -1.1874646934080042 -1.3654389935759768 20.250470346142922
H -0.6454886405643296 -1.3577258302339872 17.84975005410633
H -1.2831282121145848 0.8290046282490169 16.58735344274367
H -2.7862377350681475 0.5299416639026152 14.71562434463341
H -4.193695489536459 -0.27574910286623544 13.092738501907425
H -3.4262130076263637 1.2338941131618169 12.468174769601749
H -4.145260942901551 0.04238704456189894 11.331571566577084
H -3.2360202879375874 -2.331369358296025 11.281313284138188
H -2.9739049680295757 -2.4478875096753923 13.051672843547419
H -1.589611244888463 -2.69324060581957 11.936651735781933
H -1.5974019941498723 -1.8743143131151951 9.697691916838231
H -0.4726699188602405 -0.941286345282415 7.770166338879402
H 2.222281732162469 1.7405028964126155 5.603637009443089
H 1.9069205744196218 1.1814176841279698 3.230599170128947
H -2.2145931832428767 0.17356807287236092 4.031237617388802
H -1.8950369494449397 0.7531320659730044 6.387770146642778
H -0.09210679948418707 2.846877004932169 9.768716733118138
H -1.2043335246502378 1.9242043508323619 11.74533551448414
H 0.4408004455815388 -1.2346684530588095 12.425694972470254
H 1.9319057975764429 -0.9398135635907601 14.344970505267183
H 2.5623839738693177 1.4242646293532615 18.58491517759911
H 2.0254688015404843 1.394984222412261 20.996163325493164
H 0.14573209375710805 0.008210227948751175 44.15926375032514
H 0.4945114376061269 -0.04352029589375676 -0.9591477581280398
