58

C 0.37901105358729137 0.021383740174889428 20.781126279337528
C -0.3722134265753378 -0.7493116526701001 19.887842718034122
C -0.07024741208343122 -0.7336257520933513 18.522650472415958
C 0.9817640685994805 0.06641305581295813 18.038954191859453
O 1.325760641885572 0.09804890059115198 16.679464590489292
C 0.4318872665414367 -0.06249984202230158 15.610310702294928
C -0.9042187694894104 0.3601762078932897 15.687897366301632
C -1.7629962308615093 0.2005688806943927 14.59676755579478
C -1.2981778291230832 -0.3621936394558662 13.386508295410682
C -2.2097011243635865 -0.5878586928028187 12.165315786609218
C -3.5680260790587015 0.14882461041006795 12.277437725438615
C -2.515856361015677 -2.103414288063644 12.098375909151098
C -1.507511651476195 -0.05257635999984936 10.901693056224417
C -1.2879000231509776 -0.8408882358189701 9.748965657201175
C -0.6516155389148843 -0.3041429936310994 8.626153921568221
C -0.23167016034057347 1.034955410775893 8.617781281618576
O 0.4230106958874347 1.6013722098556145 7.51414485516562
C 0.20315303402327722 1.2555185968478908 6.17262573304953
C 1.2561872601449724 1.3924646642990666 5.262134528628565
C 1.073480658181957 1.0742316164802217 3.9131211573260223
C -0.1744625352211575 0.6245904284545045 3.452589242661402
C -0.3626480072046535 0.2908787661715271 2.0271681517974844
N -1.5186350154080768 -0.15041944467803248 1.4921152997437093
N -1.286874980637983 -0.3352729970338455 0.20185043768329014
C 0.0 0.0 -0.0
O 0.5742866496638751 0.384817217621839 1.1129162700237771
C -1.2379177107924946 0.5054022510140742 4.362664519283046
C -1.0529421449814025 0.8241188489577937 5.711255962472211
C -0.4268440693497541 1.8176089222283418 9.756999151511435
C -1.0632264883624936 1.2870127736591714 10.881108488565467
C 0.04851020139347828 -0.7812585184942988 13.32661427576824
C 0.9023389898940637 -0.6194138689036875 14.419859457714411
C 1.7418252300745354 0.8187184413362694 18.942948471303634
C 1.4385967534816846 0.8022291129212737 20.30793405257458
H -1.184907016390654 -1.365663690976564 20.25060501142962
H -0.6432342401009428 -1.3579240380791697 17.84981635839483
H -1.2810324677955525 0.8288206913605571 16.587524619270624
H -2.7843785393480616 0.5297790930894043 14.71598209423919
H -4.192041596028251 -0.27589310955777024 13.093265106736615
H -3.4246374579331778 1.2337567657246757 12.468621209508557
H -4.143829413900406 0.04226259992389126 11.332095603898312
H -3.234595997883531 -2.331493580876 11.281696070025456
H -2.9722570796968037 -2.4480315115696225 13.052021207630766
H -1.5881043157896373 -2.6933727241304823 11.936822507817448
H -1.5961776008840598 -1.874421536645692 9.697872795544745
H -0.4716886855699459 -0.9413725560132705 7.7702155224006075
H 2.2229902507018893 1.740439773818351 5.6033755810332275
H 1.9073291095039746 1.1813810609744793 3.230371383658945
H -2.2140838480392264 0.1735240754510914 4.031519276913809
H -1.8942297082657829 0.7530617510556263 6.388017862085187
H -0.09087169022932623 2.8467684338215546 9.768759940531707
H -1.2028490498859123 1.9240742164881997 11.745508952054609
H 0.4423696801016204 -1.2348067606629827 12.42562546114375
H 1.9337175856110966 -0.9399737614268432 14.344715890143362
H 2.564732254266437 1.4240570596303266 18.58460716499989
H 2.028121680380378 1.3947500442154834 20.995922794707283
H 0.14564896379949643 0.008217490147583432 21.83553074865189
H 0.49439025149508353 -0.043509815632839954 -0.9592107042617006
