126

C -1.4219323597093685 -0.7338129278105043 26.386544597773682
C -1.012925867065791 -2.007473960113081 25.646983918622652
C -2.2224601172110585 -2.6615313939594247 24.9675119513202
C -1.8024411429726437 -3.9203038678203317 24.193312665519183
C -2.9990772700699413 -4.677404594566712 23.58710698302876
C -3.7623321307222133 -3.8814758483412812 22.518367170379918
N -2.8580743565488707 -3.4406290617656476 21.45662348138572
C -2.621532172694893 -2.053452707440592 21.166650026185007
O -3.4622164305793 -1.1877836078601574 21.53494667726392
C -1.405502723455375 -1.6217296628355853 20.43523461284986
C -1.3589783882863462 -0.35833109546968567 19.82869422667935
C -0.21094483743275738 0.06786346324850706 19.157455054939128
C 0.9217241112568679 -0.7677353818000004 19.047338435285507
C 2.2075861407695796 -0.2665283813189847 18.364052045431098
C 3.0438870056564 -1.4134319287081494 17.745561348838407
C 3.064989063139357 0.559557464861578 19.371795702743267
C 3.193128306320107 2.011062415996826 18.814375280390507
C 2.5455189183724505 3.0289027537303785 19.772735820514377
C 4.666739192770395 2.3781960135965163 18.560779530653445
C 2.441156860577312 1.9616030533206967 17.52368386359827
C 2.2455768018306497 3.0170193185489573 16.626334243239363
C 1.498248742038549 2.7947452330958775 15.46231482448709
C 0.9522576596658837 1.5211563945838058 15.189351812580714
C 0.15902922292588584 1.305971593169024 13.954826615108788
O -0.36206775832974947 2.2961746872665834 13.372452574938823
N -0.013251999349986998 -0.003315099789958309 13.398487543904306
C 1.154536727947409 0.4782202973986338 16.117622507805613
C 1.9060659507820907 0.7208054445635578 17.275363580658897
C 0.8840995303023329 -2.0136005250592355 19.706955597394437
C -0.26396060478156214 -2.4374252980831197 20.381323839929923
H -2.1786378037582352 -0.9691111301370108 27.166272460648106
H -1.8527755740675513 0.001969469775664312 25.672975650231216
H -0.2485535061097499 -1.7527663886024225 24.87956951529507
H -0.562942082784353 -2.7212856308172335 26.371691946211904
H -2.6779404300891803 -1.9271571291704228 24.269295608688452
H -2.9765690435977437 -2.9346094669150378 25.73869591781897
H -1.0802772773461553 -3.6474386657119973 23.393133623644946
H -1.278211264262081 -4.612537980101824 24.888408824583497
H -2.6230578442393337 -5.617819250432764 23.12757384176107
H -3.7041587714510236 -4.964752555965735 24.397318541691693
H -4.544275586253788 -4.533568009859988 22.07360367564568
H -4.285501368470085 -3.0233540027781785 22.991114014314046
H -2.3749037733491623 -4.174845487854683 20.89361114029851
H -2.212146195898828 0.30693003506795197 19.87461965943174
H -0.21402865474767818 1.0606562565579147 18.729380193885973
H 3.8662631226947832 -1.0043028219756516 17.11740489736303
H 3.519312946929018 -2.038144066584364 18.531205272855633
H 2.4054896066925293 -2.0622781195936915 17.107003806918744
H 2.601150141389614 0.5600301596950357 20.385690711967904
H 4.069327777966751 0.09740853158004742 19.515739464294796
H 1.4727870444500042 2.7859416849001466 19.935278483583822
H 2.6135157496620933 4.0594857026017666 19.361100279202496
H 3.0619277592353558 3.011467061086719 20.756909901273293
H 4.750304416560042 3.40758674086093 18.147212306757467
H 5.241315188638799 2.33654419786489 19.512574092852706
H 5.129198074910177 1.6690752958951607 17.83794417114359
H 2.662078862833665 3.9957371001484323 16.82381094336684
H 1.3540231150145288 3.6157529311246903 14.771948483699125
H 0.5387516765450626 -0.817209460065172 13.747934398914555
H 0.7149567785990716 -0.4993070034334743 15.971578357255833
H 1.7437034065991837 -2.666716284354381 19.723679371303206
H -0.23828076475004045 -3.393259432528875 20.88629259139311
C -1.408680360359381 -0.730497828020546 12.988057053869376
C -0.9996738677158038 -2.004158860323123 12.248496374718345
C -2.2092081178610705 -2.6582162941694665 11.569024407415897
C -1.7891891436226568 -3.916988768030373 10.794825121614881
C -2.9858252707199546 -4.674089494776753 10.188619439124453
C -3.749080131372226 -3.8781607485513234 9.11987962647561
N -2.8448223571988844 -3.4373139619756894 8.058135937481412
C -2.6082801733449057 -2.0501376076506337 7.768162482280698
O -3.4489644312293137 -1.184468508070199 8.136459133359612
C -1.3922507241053879 -1.618414563045627 7.036747068945557
C -1.345726388936359 -0.3550159956797273 6.430206682775047
C -0.19769283808276994 0.07117856303846545 5.758967511034823
C 0.9349761106068548 -0.7644202820100421 5.6488508913812
C 2.2208381401195667 -0.26321328152902634 4.965564501526793
C 3.0571390050063876 -1.4101168289181911 4.347073804934107
C 3.0782410624893446 0.5628725646515363 5.973308158838963
C 3.2063803056700944 2.014377515786784 5.415887736486203
C 2.558770917722438 3.0322178535203372 6.374248276610071
C 4.679991192120383 2.381511113386475 5.162291986749141
C 2.454408859927299 1.964918153110655 4.125196319693963
C 2.2588288011806363 3.020334418338916 3.227846699335055
C 1.511500741388536 2.7980603328858358 2.063827280582782
C 0.9655096590158712 1.524471494373764 1.790864268676409
C 0.17228122227587286 1.3092866929589824 0.556339071204483
O -0.34881575897976247 2.2994897870565416 -0.026034968965479695
N -0.0 0.0 0.0
C 1.1677887272973961 0.48153539718859223 2.7191349639013076
C 1.9193179501320778 0.7241205443535159 3.8768760367545934
C 0.89735152965232 -2.010285425269277 6.308468053490133
C -0.25070860543157486 -2.434110198293161 6.982836296025622
H -2.1653858044082477 -0.9657960303470524 13.767784916743805
H -1.8395235747175636 0.005284569565622593 12.274488106326912
H -0.2353015067597628 -1.7494512888124638 11.481081971390763
H -0.5496900834343657 -2.717970531027275 12.973204402307603
H -2.6646884307391936 -1.9238420293804643 10.870808064784146
H -2.9633170442477565 -2.931294367125079 12.340208373914665
H -1.0670252779961684 -3.6441235659220386 9.99464607974064
H -1.2649592649120938 -4.609222880311865 11.489921280679198
H -2.609805844889347 -5.614504150642807 9.729086297856758
H -3.690906772101037 -4.9614374561757755 10.99883099778739
H -4.5310235869038005 -4.53025291007003 8.675116131741378
H -4.2722493691200985 -3.0200389029882198 9.592626470409742
H -2.361651773999175 -4.171530388064725 7.495123596394204
H -2.1988941965488413 0.31024513485791033 6.4761321155274345
H -0.20077665539769135 1.063971356347873 5.330892649981674
H 3.8795151220447703 -1.000987722185693 3.718917353458726
H 3.5325649462790056 -2.034828966794406 5.1327177289513255
H 2.4187416060425173 -2.058963019803733 3.70851626301444
H 2.6144021407396014 0.563345259484994 6.987203168063602
H 4.082579777316739 0.10072363137000573 6.117251920390489
H 1.4860390437999913 2.789256784690105 6.53679093967952
H 2.626767749012081 4.062800802391725 5.962612735298192
H 3.0751797585853433 3.0147821608766776 7.358422357368988
H 4.76355641591003 3.410901840650888 4.74872476285316
H 5.254567187988786 2.339859297654849 6.114086548948405
H 5.142450074260164 1.672390395685119 4.439456627239288
H 2.6753308621836527 3.9990521999383906 3.4253233994625374
H 1.3672751143645159 3.619068030914648 1.3734609397948243
H 0.5520036758950497 -0.8138943602752137 0.3494468550102494
H 0.7282087779490585 -0.49599190364351586 2.573090813351528
H 1.7569554059491708 -2.6634011845644228 6.3251918273989
H -0.225028765400053 -3.3899443327389167 7.4878050474888065
H -0.5606074418878573 -0.2893112217857127 26.86292429851755
H -0.6533553329475572 -0.16344236592458217 -0.8442827736783216
