60

N -1.6652069850796223 0.4308158462863393 19.584100447518438
C -2.11233872457107 1.0813698349836098 18.384543297977235
C -1.2397138010284747 1.9401240523802126 17.699038969069072
C -1.6513474643746462 2.5838791389863087 16.528844760803203
C -2.946918053826168 2.3843563132641172 16.028837586336603
C -3.374264136295718 3.0527035354586687 14.749714704561459
C -2.8476297783901194 2.294939647463028 13.559875098346366
C -3.409334298533313 1.0581228521162944 13.20557609023466
C -2.9156850386952833 0.3469943227790972 12.108272301562135
C -1.8425131287270422 0.8506746301912491 11.36010232050748
N -1.3697127521416088 0.11643458708274457 10.220281475442036
C 0.012348948782124447 0.0033236096889783795 9.853335168375423
O 0.3164549668464556 -0.4158527076116272 8.706084109638775
C -1.2977568127468162 2.1008761160544838 11.697953838797703
C -1.7913001225988443 2.8136782825934477 12.794497843871218
C -3.818859050307225 1.5185115284191872 16.70637805499767
C -3.4072306894803477 0.8743222210764712 17.877008924728727
H -2.3542463506369744 0.19393027522635098 20.332556547298452
H -0.23677210946053773 2.108743266226402 18.07071676492556
H -0.9596115691888758 3.2361391018157293 16.00991208959787
H -4.482650630227166 3.1173705043682243 14.68728652147558
H -2.999624886402432 4.099989345679918 14.74538991674951
H -4.230956607260234 0.6461858578104671 13.778235469830003
H -3.3618892234332307 -0.6042487092818187 11.84646593095229
H -2.0651396749422677 -0.4294707964003745 9.662621888251827
H -0.5053487295049353 2.5348177341762166 11.102416349205468
H -1.3505676706804293 3.770975314051597 13.043738178023611
H -4.817546733930454 1.339867193424691 16.327389202899564
H -4.103342534849164 0.21524106535311083 18.377239540418717
N -1.6775559338617467 0.427492236597361 9.730765279143013
C -2.1246876733531943 1.0780462252946315 8.531208129601808
C -1.2520627498105987 1.9368004426912342 7.845703800693649
C -1.66369641315677 2.5805555292973303 6.675509592427776
C -2.959267002608292 2.381032703575139 6.175502417961181
C -3.386613085077842 3.0493799257696907 4.896379536186035
C -2.859978727172244 2.2916160377740495 3.7065399299709414
C -3.4216832473154364 1.0547992424273163 3.352240921859232
C -2.9280339874774066 0.343670713090119 2.2549371331867056
C -1.8548620775091662 0.8473510205022706 1.5067671521320551
N -1.3820617009237333 0.11311097739376619 0.3669463070666141
C 0.0 0.0 0.0
O 0.30410601806433124 -0.4191763173006054 -1.1472510587366496
C -1.31010576152894 2.097552506365506 1.8446186704222782
C -1.803649071380969 2.8103546729044697 2.941162675495794
C -3.831207999089349 1.515187918730209 6.853042886622248
C -3.419579638262472 0.8709986113874928 8.023673756353304
H -2.3665952994190986 0.19060666553737282 10.479221378923024
H -0.24912105824266162 2.1054196565374235 8.217381596550137
H -0.9719605179709995 3.232815492126751 6.156576921222441
H -4.49499957900929 3.114046894679246 4.833951353100158
H -3.0119738351845564 4.09666573599094 4.892054748374084
H -4.243305556042358 0.6428622481214888 3.9249003014545787
H -3.3742381722153545 -0.6075723189707968 1.9931307625768628
H -2.077488623724392 -0.43279440608935266 -0.19071328012359898
H -0.5176976782870593 2.531494124487238 1.2490811808300446
H -1.362916619462553 3.7676517043626196 3.1904030096481875
H -4.8298956827125785 1.336543583735713 6.474054034524138
H -4.115691483631287 0.21191745566413245 8.52390437204329
H -0.6342464074689889 0.16408975294729156 19.764037877045592
H 0.7939995718869024 0.21369792010038796 0.700212738236162
