42

Cl -4.20640503247854 -5.652231156982605 -3.0812725271994816
N -3.5562652411444375 -5.1736769706026156 -1.5349808339468045
C -3.306527243789889 -3.806198079955377 -1.1749480452850822
C -2.78137208877663 -3.511109885651822 0.09238869060860552
C -2.541303864226701 -2.180043670069149 0.4535311587508372
C -2.773890066167275 -1.1386576309686105 -0.46354506874246626
C -2.500390050055351 0.2983301780537897 -0.09644196672917463
C -1.13039167606424 0.7809052760553157 -0.6301819821397977
C 0.0 0.0 0.0
O 0.7238321419408704 -0.6793042780788169 -0.7101610872732396
C -3.263505941254087 -1.4441759967579852 -1.7392689856337198
C -3.5389899178095905 -2.7649658781443205 -2.0893364158362973
H -3.3606726806707266 -5.9224555675584645 -0.8544213669432434
H -2.5845963034571904 -4.301824591628898 0.8055894786504485
H -2.1627824653261416 -1.9644661211432994 1.4427884970978868
H -2.5616905428673067 0.42042785795566684 1.004524328097142
H -3.318261228313162 0.9352968002113451 -0.4985896548145026
H -1.021020787994056 1.836340674917091 -0.3735123090729884
H -1.162444379612913 0.6400013578743935 -1.7115208463893385
H -3.4454038844483135 -0.6558423008010281 -2.459567851230881
H -3.925004776278252 -2.96536451391382 -3.079200432923061
N 4.577759609428868e-15 -8.373001438217524e-15 1.3775651680047671
C -0.2537145303704619 -1.0667030826522137 2.30512075229025
C -0.3972337702061557 -0.7147920762342913 3.6677977048578456
C -0.8684456953710316 -1.6215019962142476 4.6224660122779415
C -1.2296159569914638 -2.920089274563302 4.24682049116658
C -1.7962134388886275 -3.93222159654161 5.2125968462895385
C -3.1929727767894676 -3.5231000040074822 5.679138804541041
C -3.22174280702039 -2.2923567395030116 6.5409451356487835
Cl -2.3636366480270325 -2.2581997752428395 8.074749165305182
O -3.862613869845692 -1.313881947487547 6.191675510969712
C -1.0358870272917855 -3.295144831244185 2.89134728324242
C -0.5586252611620554 -2.382888409723766 1.9285984346918281
H -0.1105344148223556 0.9288449710738391 1.8131511114771228
H -0.18832667373241008 0.2970477883936912 3.993038284110397
H -0.9722151183145264 -1.288522707467578 5.644625221514809
H -1.1054809197651494 -4.081570338595007 6.069989074136511
H -1.9073083386855205 -4.91415214443054 4.702225485551436
H -3.6161076148104616 -4.35315334019348 6.284403419432281
H -3.8466320934936804 -3.386426627071317 4.788613195014484
H -1.2945384845707641 -4.293865840449951 2.5620353405217253
H -0.494648265395268 -2.6986915620557794 0.8973583622112155
