42

Cl -1.4659268728347101 0.336239618757542 -5.197590160110628
N -0.03986410889144925 0.01058021626759264 -4.247324510376623
C -0.03689357162941206 -0.004111329755271995 -2.811439233976091
C 1.1573036016878417 -0.27582441312291833 -2.1265505620242715
C 1.1671169959944496 -0.2985742333955722 -0.7268434326683684
C 0.0 0.0 0.0
C -1.2490009027033014e-16 -2.1633330221815092e-16 1.5081448569683213
C 1.3105841327323862 0.5852791243146088 2.086478888192168
C 2.498458458985627 -0.2661551525431912 1.7008080708880329
O 3.3813818996153975 0.21928006824551677 1.0119576617248336
C -1.1790497822073713 0.30609474008478205 -0.6904232834060392
C -1.2017613564931802 0.29307597883189046 -2.0840657174790342
H 0.8310355608759715 -0.19226713897175812 -4.759646421650581
H 2.067495729117507 -0.49511897740643074 -2.670670039015093
H 2.0872716458024834 -0.5365402127194852 -0.21199411138973634
H -0.17198511022655394 -1.030498666227793 1.8813552493250962
H -0.8758640225314128 0.582337027389026 1.8688501460434976
H 1.2217399874603088 0.6013562249385713 3.174428077302762
H 1.3923222218888434 1.5956543921037862 1.683197680694221
H -2.086355312627377 0.5417411823259122 -0.14760216883110633
H -2.1309329323648356 0.5248976240772365 -2.585958897237363
N 2.3839644022011193 -1.5973721128944633 2.0361262892033323
C 2.7892510106333783 -2.773041566179995 1.317704412422859
C 2.342325574679612 -4.018966584465599 1.8169599674320664
C 2.4767171566879096 -5.202835446094051 1.0848748933103103
C 3.055005043418064 -5.184760271464298 -0.18914977011786682
C 3.1821408422631436 -6.413542849984463 -1.0563858251671006
C 1.8107535855404207 -6.896951824105831 -1.5271206551270793
C 0.9356191077480656 -7.437546584247315 -0.4316007779971973
Cl 1.4455680565207256 -8.831328870046054 0.5104133881061075
O -0.14884903079576262 -6.925490692726623 -0.2039046450870594
C 3.554592687785712 -3.9466478673084247 -0.6718453744800217
C 3.421998098703952 -2.7530756469331603 0.06617897951834151
H 1.6731285274346532 -1.80607132040429 2.754362288878763
H 1.833331179394021 -4.0712785231053354 2.7716492821536716
H 2.1006451930696173 -6.120519214570382 1.5125185863017627
H 3.7362574250653298 -7.213291483422526 -0.5198275076678982
H 3.7626623916306694 -6.16601673048036 -1.9722101283951636
H 1.9624436364651574 -7.720309352729459 -2.2574968558683444
H 1.2959146047184338 -6.064755487460854 -2.057569575006136
H 4.017387344944234 -3.8919091179190923 -1.6494011840483638
H 3.7573548046088354 -1.8262214235955394 -0.37626638726250716
