42

Cl 0.206917242273514 -0.08915069469308555 4.510764662647081
N -1.0649434955092592 0.6062751397612359 3.540472422824384
C -1.0685786217138067 0.5717254600885701 2.1049292161977147
C -2.133627462801852 1.1568000981218522 1.4032412403656847
C -2.1479519320654945 1.1214888974898876 0.003833567923436393
C -1.0767770907234528 0.5492980589905713 -0.7066536834845728
C -1.067948374710019 0.5223850443159977 -2.214532542350457
C -0.21922055231551518 1.671948559554668 -2.80851695454123
C -0.8068832406856656 3.0176886878474543 -2.450238021445689
O -0.7094979520090399 3.4245928244820085 -1.3036512733367411
C 0.0 0.0 0.0
C 9.61481343191782e-17 -5.551115123125782e-17 1.393888280243432
H -1.8507230458844244 1.0475251371043228 4.0404083818800745
H -2.9597931557415076 1.6126934359268648 1.9344825530989258
H -2.987817637864739 1.551281094305021 -0.5236950799044852
H -2.109468025504712 0.5619778497412253 -2.5946135902429637
H -0.6786558788077288 -0.4617819832425073 -2.555456462750306
H -0.2156272670531082 1.562303667987564 -3.894680054381336
H 0.7836490002822454 1.5488233740768675 -2.3970951776827234
H 0.8349589557515101 -0.4417910613718257 -0.5301429373313471
H 0.8425275403855841 -0.4406219248833199 1.9086673780163907
N -1.5639515873802132 3.596938304350167 -3.4447244176898204
C -2.610569262589996 4.576907086603674 -3.362029078358959
C -3.357724111981038 4.822069446833003 -4.53803190737691
C -4.535968259998454 5.575144494063403 -4.524847238187303
C -5.023460657984948 6.1047163204928 -3.324935875853563
C -6.315137412278121 6.879548567714127 -3.2281130330705223
C -7.518833990808345 5.973604049098077 -3.4857127231405247
C -7.621188785057549 5.466846835379751 -4.8967362780603745
Cl -8.825102680623218 6.125759445702601 -5.995141114048195
O -6.882607729104825 4.57509458597163 -5.283251294538799
C -4.248909533904865 5.908044259348319 -2.151523824291341
C -3.059781714641942 5.151277116930498 -2.163951173636627
H -1.591697116232957 3.072088490204763 -4.332682079698664
H -3.0517304125031446 4.380611299848562 -5.4786306960965705
H -5.071356227332991 5.713535324705404 -5.4525651108876145
H -6.300935737554357 7.7484151936308585 -3.9205052563826666
H -6.434329717374601 7.279789244725413 -2.197283659036521
H -8.443440327560957 6.554859317669676 -3.2816972313398005
H -7.490263751514346 5.121315812442273 -2.7703285755772686
H -4.586867064658301 6.309544661463791 -1.2042262360392857
H -2.544625915861034 4.973846532549617 -1.230991547067143
