42

Cl 3.0416168852480885 1.5584507720651692 -6.888802410471878
N 3.4142969761277158 1.761967829365849 -5.196938286066606
C 2.9356760507973836 0.8761220191579546 -4.173126583177325
C 3.2849068436308477 1.1150383176107055 -2.835231132452363
C 2.827862871138458 0.25228949234890186 -1.8319519207083181
C 1.9780002434116264 -0.8234669263254804 -2.1483246004297403
C 1.4605939654980145 -1.7490824881809477 -1.0759312561634817
C 0.02706774532110956 -1.373632312028794 -0.6301819821398056
C 0.0 0.0 0.0
O 0.12812093148308074 0.9843639056968765 -0.7101610872732311
C 1.604228302629299 -1.0338390041762848 -3.481206746099245
C 2.0875150059141916 -0.19910637770547968 -4.487477058954182
H 4.020303794546453 2.5551047956583397 -4.940468962695663
H 3.9277620053105124 1.9460514137569194 -2.573009289092023
H 3.1269658273831373 0.4315870919042062 -0.8088331578760655
H 2.1572182677508387 -1.7462349864868347 -0.21250850371549
H 1.4859446841686126 -2.7931413918489425 -1.4575866658388423
H -0.30118656528744137 -2.11002910386412 0.10585746377430033
H -0.5882092887288426 -1.4152542746255097 -1.5301135422599594
H 0.9480107102608025 -1.854914550702413 -3.7431241988642694
H 1.786890093830897 -0.39497030111001646 -5.507408351857531
N 1.5365204622148196e-16 4.881777556675597e-16 1.3775651680047676
C -0.14525122927002365 -1.0867974097578403 2.305120752290258
C -0.32340320402408085 -0.7510877099689796 3.6677977048578505
C -0.7011268178869111 -1.7005551548758795 4.622466012277953
C -0.9299909080453055 -3.0288601294976543 4.246820491166599
C -1.392024818537715 -4.092800545705481 5.2125968462895695
C -2.8228230549918303 -3.8260918430903432 5.6791388045410685
C -2.9751091326879386 -2.6044676585300675 6.540945135648804
Cl -2.124777535724572 -2.4842634426491927 8.074749165305201
O -3.7110513896274213 -1.695337507106545 6.191675510969722
C -0.699557836856384 -3.3825523240711823 2.8913472832424443
C -0.316372295059154 -2.4269585753620047 1.9285984346918463
H -0.2033027857752424 0.9130382327401902 1.8131511114771166
H -0.2172201516331595 0.2766219990405321 3.993038284110394
H -0.837827929173811 -1.3796874156978896 5.6446252215148185
H -0.6897817035118791 -4.171990615325404 6.069989074136542
H -1.4038958710224003 -5.080924402188692 4.702225485551473
H -3.1604151217251237 -4.694459984225942 6.284403419432316
H -3.4869069964556623 -3.755787981409692 4.788613195014511
H -0.8565516576989525 -4.402207741748536 2.562035340521758
H -0.220988045992364 -2.7347353321844605 0.8973583622112351
