42

N 1.1289347820091358 0.11459274432943245 13.88744686694529
C 0.8960411187973825 -0.47939084556317035 12.600967366201065
C 1.8595641264045122 -0.33754959467405077 11.590873318207555
C 1.6556034912730686 -0.9057123208079583 10.330359065601156
C 0.4851099863599089 -1.631305189927989 10.061479605345694
C 0.24692181672000046 -2.2175613535175516 8.692803002910393
C -0.6474376384211026 -1.3126211648295516 7.835440364154751
C 0.01409468604280173 0.0005222554527660947 7.522352531782361
O -0.45827790184067907 1.0421968530050372 7.948536482830002
C -0.48433202650700524 -1.7673067787325714 11.066595450704416
C -0.28041066695371053 -1.1993617732793573 12.327764882777952
H 2.011693172867825 0.645427310263943 14.060740225316858
H 2.7700983830189747 0.21713210502857427 11.7799010072469
H 2.4093565500646323 -0.7771477668897512 9.563461966645779
H -0.24726240501914565 -3.2076013719974243 8.801225013680565
H 1.2125869455577962 -2.4016495066719483 8.172799796355967
H -0.8764648823358043 -1.8289929396350864 6.879032906126525
H -1.6125889993553681 -1.1395450668935614 8.361127894715434
H -1.400018697356038 -2.3120674262821357 10.871943550277535
H -1.0456019232506413 -1.3240579478816044 13.081503027470317
N 1.114840095966334 0.11407048887666635 6.3650943351629286
C 0.8819464327545811 -0.4799131010159365 5.078614834418704
C 1.8454694403617102 -0.33807185012681684 4.068520786425193
C 1.6415088052302669 -0.9062345762607243 2.808006533818795
C 0.47101530031710725 -1.631827445380755 2.5391270735633333
C 0.23282713067719868 -2.2180836089703178 1.1704504711280315
C -0.6615323244639042 -1.3131434202823178 0.31308783237238974
C 0.0 0.0 0.0
O -0.47237258788348047 1.041674597552271 0.42618395104764145
C -0.4984267125498072 -1.7678290341853375 3.544242918922055
C -0.29450535299651237 -1.1998840287321235 4.8054123509955895
H 1.9975984868250234 0.644905054811177 6.538387693534498
H 2.7560036969761725 0.21660984957580823 4.257548475464538
H 2.3952618640218306 -0.7776700223425174 2.0411094348634164
H -0.2613570910619472 -3.20812362745019 1.2788724818982045
H 1.1984922595149945 -2.402171762124715 0.6504472645736066
H -0.8905595683786058 -1.8295151950878525 -0.6433196256558343
H -1.6266836853981694 -1.1400673223463273 0.8387753629330696
H -1.4141133833988397 -2.3125896817349014 3.349591018495176
H -1.059696609293443 -1.3245802033343705 5.559150495687955
H 0.4299907403480434 0.04364629361948419 14.707717448983997
H 0.8890877212619417 0.03294368593582654 -0.6122399345503435
