22

N 1.1265032232031609 0.11451548933949869 6.363032539783545
C 0.8912588024030712 -0.4795581258425941 5.077022403164119
C 1.8529272146220273 -0.337774612140979 4.06515442135192
C 1.646663069000907 -0.9060252728891786 2.8050547055097885
C 0.47568699890181165 -1.6316496274131056 2.5383703222287046
C 0.2349973368555366 -2.218001460117493 1.1701724014492363
C -0.66094237256339 -1.3131296199112532 0.3143889800597457
C 0.0 0.0 0.0
O -0.47160255615090096 1.0416982120481415 0.4269782818219711
C -0.4919095996512702 -1.7675938840913148 3.5452705618774574
C -0.2856835262062767 -1.199560899957746 4.806025542857414
H 2.009571691075932 0.6453717975315297 6.534671585980978
H 2.763800068032009 0.21693021239819785 4.252475243020838
H 2.3990077814138653 -0.7775043041046015 2.0367686436585135
H -0.258976026851681 -3.208039692592892 1.2795672359331587
H 1.1997098547589022 -2.4021140315015908 0.6484126455549346
H -0.8917162922798073 -1.829568953297728 -0.6415620265054698
H -1.6251305791232755 -1.1400287117556287 0.8418328566035241
H -1.4079452803072898 -2.3123780967755945 3.3523343081457297
H -1.0494905795578515 -1.3242145125771234 5.561173374443603
H 0.4290646037918453 0.04361686859780964 7.184587624808624
H 0.8879637038590281 0.03291213619326587 -0.6138707127076134
